@<TRIPOS>MOLECULE
./COACH420/2g25A_B/ligand.pdb
 34 35 0 0 0
SMALL
GASTEIGER

@<TRIPOS>ATOM
      1 O          13.2260  -65.3840   -0.1740 O.3     1  LIG1       -0.1143
      2 P          14.5720  -65.6130    0.3990 P.3     1  LIG1        0.5373
      3 O          15.5540  -66.3750   -0.3870 O.2     1  LIG1       -0.2221
      4 O          14.4090  -66.3140    1.8310 O.3     1  LIG1       -0.1143
      5 O          15.1980  -64.1750    0.7670 O.3     1  LIG1       -0.2261
      6 P          15.9000  -63.8790    2.1900 P.3     1  LIG1        0.2230
      7 O          15.1200  -64.5310    3.2640 O.3     1  LIG1       -0.4370
      8 O          16.1480  -62.4240    2.2730 O.2     1  LIG1       -0.5169
      9 O          17.3140  -64.6250    2.0390 O.3     1  LIG1       -0.3134
     10 C          18.3280  -64.0500    1.2050 C.3     1  LIG1        0.1544
     11 C          19.6380  -64.6580    1.5000 C.3     1  LIG1        0.0661
     12 C          20.7560  -64.2190    0.6200 C.2     1  LIG1        0.0164
     13 S          20.5610  -64.2830   -1.0850 S.3     1  LIG1       -0.0946
     14 C          22.0100  -63.7900    0.9210 C.2     1  LIG1        0.0279
     15 C          22.5760  -63.6450    2.2860 C.3     1  LIG1        0.0473
     16 N          22.7690  -63.5340   -0.1940 N.pl3   1  LIG1       -0.2966
     17 C          22.1420  -63.7870   -1.3690 C.3     1  LIG1        0.1650
     18 C          22.7690  -63.9930   -2.7270 C.3     1  LIG1        0.2468
     19 O          23.7290  -62.9520   -2.9880 O.3     1  LIG1       -0.2105
     20 C          21.6940  -64.0350   -3.7850 C.3     1  LIG1        0.0484
     21 P          23.6170  -65.6330   -2.6290 P.3     1  LIG1        0.3985
     22 O          24.5520  -65.6340   -1.4940 O.3     1  LIG1       -0.1376
     23 O          24.3980  -65.6300   -3.9950 O.3     1  LIG1       -0.2883
     24 C          25.7200  -65.9180   -4.1390 C.3     1  LIG1        0.1840
     25 O          22.5980  -66.6890   -2.6540 O.2     1  LIG1       -0.2529
     26 C          24.1380  -62.9570   -0.1010 C.3     1  LIG1        0.1228
     27 C          24.0970  -61.4550    0.1710 C.ar    1  LIG1        0.0543
     28 C          24.6190  -60.9420    1.2690 C.ar    1  LIG1        0.1007
     29 N          24.6460  -59.6260    1.4930 N.ar    1  LIG1       -0.2293
     30 C          24.1300  -58.7740    0.5900 C.ar    1  LIG1        0.1413
     31 C          24.1880  -57.3400    0.8620 C.3     1  LIG1        0.0737
     32 N          23.5860  -59.1740   -0.5270 N.ar    1  LIG1       -0.2104
     33 C          23.5490  -60.5100   -0.7830 C.ar    1  LIG1        0.1839
     34 N          23.0170  -60.8700   -1.9060 N.2     1  LIG1       -0.1272
@<TRIPOS>BOND
     1    24    23    1
     2    23    21    1
     3    20    18    1
     4    19    18    1
     5    18    21    1
     6    18    17    1
     7    25    21    2
     8    21    22    1
     9    34    33    2
    10    17    13    1
    11    17    16    1
    12    13    12    1
    13    33    32   ar
    14    33    27   ar
    15    32    30   ar
    16     3     2    2
    17    16    26    1
    18    16    14    1
    19     1     2    1
    20    26    27    1
    21    27    28   ar
    22     2     5    1
    23     2     4    1
    24    30    31    1
    25    30    29   ar
    26    12    14    2
    27    12    11    1
    28     5     6    1
    29    14    15    1
    30    10    11    1
    31    10     9    1
    32    28    29   ar
    33     9     6    1
    34     6     8    2
    35     6     7    1
