@<TRIPOS>MOLECULE
./COACH420/1tjwA_A/ligand.pdb
 20 19 0 0 0
SMALL
GASTEIGER

@<TRIPOS>ATOM
      1 O           6.9430    6.3810   44.9800 O.co2   1  LIG1       -0.2441
      2 O           6.5680    8.5310   45.3270 O.co2   1  LIG1       -0.2441
      3 C           6.2140    7.3260   45.3480 C.2     1  LIG1        0.3819
      4 C           4.8140    6.9800   45.8490 C.3     1  LIG1        0.1944
      5 N           4.4750    5.5620   45.5190 N.3     1  LIG1       -0.1208
      6 C           4.7340    7.1990   47.3630 C.3     1  LIG1        0.0343
      7 C           4.3810    8.6310   47.7900 C.3     1  LIG1        0.0490
      8 C           2.9970    9.0940   47.2950 C.3     1  LIG1        0.2204
      9 N           2.5240   10.1780   48.1430 N.pl3   1  LIG1       -0.0894
     10 C           1.2520   10.5200   48.3370 C.cat   1  LIG1        0.4955
     11 N           0.2620    9.8640   47.7390 N.pl3   1  LIG1        0.1317
     12 N           1.0030   11.4930   49.2130 N.pl3   1  LIG1       -0.0806
     13 C           0.2720   12.7470   49.0500 C.3     1  LIG1        0.2937
     14 C          -0.5590   13.0380   47.7840 C.2     1  LIG1        0.4045
     15 O          -1.7840   13.2820   47.8810 O.co2   1  LIG1       -0.2418
     16 O           0.0400   13.0590   46.6960 O.co2   1  LIG1       -0.2418
     17 C          -0.5910   12.9810   50.3150 C.3     1  LIG1        0.1690
     18 C          -0.0450   12.3010   51.5840 C.2     1  LIG1        0.3690
     19 O           0.0270   11.0510   51.6180 O.co2   1  LIG1       -0.2455
     20 O           0.2850   13.0270   52.5460 O.co2   1  LIG1       -0.2455
@<TRIPOS>BOND
     1     1     3   ar
     2     2     3   ar
     3     3     4    1
     4     5     4    1
     5     4     6    1
     6    16    14   ar
     7     8     7    1
     8     8     9    1
     9     6     7    1
    10    11    10    2
    11    14    15   ar
    12    14    13    1
    13     9    10    1
    14    10    12    1
    15    13    12    1
    16    13    17    1
    17    17    18    1
    18    18    19   ar
    19    18    20   ar
